Program Version,EnergyPlus, Version 9.3.0-baff08990c, YMD=2024.09.19 17:40,
   ** Warning ** Sizing:Parameters: note Timesteps in Averaging Window entered value=[6] is less than 1 hour (i.e., 60 timesteps).
   ************* Beginning Zone Sizing Calculations
   ** Warning ** CheckUsedConstructions: There are 23 nominally unused constructions in input.
   **   ~~~   ** For explicit details on each unused construction, use Output:Diagnostics,DisplayExtraWarnings;
   ** Warning ** ManageSizing: For a plant sizing run, there must be at least 1 Sizing:Plant object input. SimulationControl Plant Sizing option ignored.
   ************* Testing Individual Branch Integrity
   ************* All Branches passed integrity testing
   ************* Testing Individual Supply Air Path Integrity
   ************* All Supply Air Paths passed integrity testing
   ************* Testing Individual Return Air Path Integrity
   ************* All Return Air Paths passed integrity testing
   ************* No node connection errors were found.
   ************* Beginning Simulation
   ** Severe  ** InitPurchasedAir: For ZoneHVAC:IdealLoadsAirSystem = PERIMETER_ZN_1 AIR serving Zone PERIMETER_ZN_1
   **   ~~~   ** ..the maximum supply air temperature for heating [50.00] is less than the zone mean air temperature heating setpoint [54.90].
   **   ~~~   ** ..For operative and comfort thermostat controls, the MAT setpoint is computed.
   **   ~~~   ** ..This error may indicate that the mean radiant temperature or another comfort factor is too cold.
   **   ~~~   ** Unit availability is nominally ON and Heating availability is nominally ON.
   **   ~~~   ** Limit Heating Capacity Type=NoLimit
   **   ~~~   **  Environment=RUNPERIOD 1, at Simulation time=07/06 00:00 - 00:01
   ** Warning ** ZoneHVAC:IdealLoadsAirSystem "PERIMETER_ZN_1 AIR" Supply humidity ratio = 1.10000E-002 exceeds saturation limit 1.07395E-002 [kgWater/kgDryAir]
   **   ~~~   **  Simulation continuing . . . 
   **   ~~~   **  Environment=RUNPERIOD 1, at Simulation time=07/06 08:37 - 08:38
   ************* Simulation Error Summary *************
   ** Warning ** The following Report Variables were requested but not generated -- check.rdd file
   **   ~~~   ** Either the IDF did not contain these elements, the variable name is misspelled,
   **   ~~~   ** or the requested variable is an advanced output which requires Output : Diagnostics, DisplayAdvancedReportVariables;
   ************* Key=Perimeter_ZN_1, VarName=ZONE VENTILATION MASS FLOW RATE, Frequency=TimeStep
   ************* There are 24 unused objects in input.
   ************* Use Output:Diagnostics,DisplayUnusedObjects; to see them.
   ************* There are 42 unused schedules in input.
   ************* Use Output:Diagnostics,DisplayUnusedSchedules; to see them.
   *************
   ************* ===== Recurring Error Summary =====
   ************* The following recurring error messages occurred.
   *************
   *************  ** Severe  ** InitPurchasedAir: For ZoneHVAC:IdealLoadsAirSystem = PERIMETER_ZN_1 AIR serving Zone PERIMETER_ZN_1, maximum supply air temperature for heating error continues
   *************  **   ~~~   **   This error occurred 14400 total times;
   *************  **   ~~~   **   during Warmup 0 times;
   *************  **   ~~~   **   during Sizing 0 times.
   *************  **   ~~~   **   Max=50. C  Min=50. C
   *************
   *************  ** Warning ** ZoneHVAC:IdealLoadsAirSystem "PERIMETER_ZN_1 AIR" Supply humidity ratio exceeds saturation limit warning continues, delta max/min [kgWater/kgDryAir]...
   *************  **   ~~~   **   This error occurred 2859 total times;
   *************  **   ~~~   **   during Warmup 0 times;
   *************  **   ~~~   **   during Sizing 0 times.
   *************  **   ~~~   **   Max=2.785224E-003  Min=2.505638E-004
   *************
   *************
   ************* ===== Final Error Summary =====
   ************* The following error categories occurred.  Consider correcting or noting.
   ************* Nominally Unused Constructions
   ************* ..The nominally unused constructions warning is provided to alert you to potential conditions that can cause
   ************* ..extra time during simulation. Each construction is calculated by the algorithm indicated in the HeatBalanceAlgorithm
   ************* ..object. You may remove the constructions indicated (when you use the DisplayExtraWarnings option).
   *************
   ************* EnergyPlus Warmup Error Summary. During Warmup: 0 Warning; 0 Severe Errors.
   ************* EnergyPlus Sizing Error Summary. During Sizing: 3 Warning; 0 Severe Errors.
   ************* EnergyPlus Completed Successfully-- 2864 Warning; 14400 Severe Errors; Elapsed Time=00hr 00min 14.59sec
